*SPEF "IEEE 1481.1999"
*DATE "16:12:03 Friday September 21, 2018"
*DESIGN "BFCPU"
*VENDOR "unknown"
*PROGRAM "qrouter"
*VERSION "unknown"
*DELIMITER/
*T_UNIT 1 PS
*C_UNIT 1 FF
*R_UNIT 1 OHM
*L_UNIT 1 HENRY

*PORTS
*clk I
*DP<0> O
*DP<1> O
*DP<2> O
*DP<3> O
*DP<4> O
*DP<5> O
*DP<6> O
*DP<7> O
*DP<8> O
*DP<9> O
*DP<10> O
*DP<11> O
*DP<12> O
*DP<13> O
*DP<14> O
*IR O
*OUTPD<0> O
*OUTPD<1> O
*OUTPD<2> O
*OUTPD<3> O
*OUTPD<4> O
*OUTPD<5> O
*OUTPD<6> O
*OUTPD<7> O
*OUTPD<8> O
*OUTPD<9> O
*OUTPD<10> O
*OUTPD<11> O
*OUTPD<12> O
*OUTPD<13> O
*OUTPD<14> O
*OUTPD<15> O
*OW O
*PCDELTA<0> O
*PCDELTA<1> O
*PCDELTA<2> O
*PCDELTA<3> O
*PCDELTA<4> O
*PCDELTA<5> O
*PCDELTA<6> O
*PCDELTA<7> O
*PCDELTA<8> O
*PCDELTA<9> O
*PCDELTA<10> O
*PCDELTA<11> O
*PCDELTA<12> O
*PCDELTA<13> O
*PCDELTA<14> O
*PCDELTA<15> O
*RD O
*WD O
*WDATA<0> O
*WDATA<1> O
*WDATA<2> O
*WDATA<3> O
*WDATA<4> O
*WDATA<5> O
*WDATA<6> O
*WDATA<7> O
*reset O

*D_NET DC1.DOP 0.0161478
*CONN
*P NOR2X1_2/Y *D NOR2X1
*I OAI21X1_11/C *L 0.0129138
*I OAI21X1_7/C *L 0.0129138
*I OAI21X1_27/C *L 0.0129138
*I NOR2X1_11/B *L 0.0150643
*I NOR2X1_13/A *L 0.0144193
*I AOI21X1_2/C *L 0.0150799
*I AOI22X1_1/B *L 0.0179972
*I OAI21X1_5/C *L 0.0129138
*I OAI22X1_1/A *L 0.0173495
*I AOI21X1_1/C *L 0.0150799
*I AOI21X1_6/C *L 0.0150799
*I AOI21X1_3/C *L 0.0150799
*I AOI21X1_4/C *L 0.0150799
*I MUX2X1_2/S *L 0.0204132
*I OAI21X1_21/C *L 0.0129138
*I OAI21X1_16/C *L 0.0129138
*CAP
1 DC1.DOP_n1 0.00076088
2 DC1.DOP_n2 0.0004599
3 DC1.DOP_n3 0.00032424
4 DC1.DOP_n4 0.0002628
5 DC1.DOP_n5 0.00135708
6 DC1.DOP_n6 0.00103152
7 DC1.DOP_n7 0.0010127
8 DC1.DOP_n8 0.00038304
9 DC1.DOP_n9 0.00088008
10 DC1.DOP_n10 0.0001971
11 DC1.DOP_n11 0.00018528
12 DC1.DOP_n12 0.0001971
13 DC1.DOP_n13 6.57e-05
14 DC1.DOP_n14 0.0004599
15 DC1.DOP_n15 0.0006948
16 DC1.DOP_n16 0.0001314
17 DC1.DOP_n17 0.00060216
18 DC1.DOP_n18 0.00027036
19 DC1.DOP_n19 0.0005256
20 DC1.DOP_n20 6.57e-05
21 DC1.DOP_n21 0.00029248
22 DC1.DOP_n22 0.0009264
23 DC1.DOP_n23 0.0002904
24 DC1.DOP_n24 0.0006076
25 DC1.DOP_n25 0.0001158
26 DC1.DOP_n26 0.0004599
27 DC1.DOP_n27 0.00083802
28 DC1.DOP_n28 0.00131302
29 DC1.DOP_n29 0.0001314
30 DC1.DOP_n30 0.00130548
*RES
1 NOR2X1_2/Y DC1.DOP_n1 3.2
2 DC1.DOP_n1 DC1.DOP_n2 1.86667
3 DC1.DOP_n2 OAI21X1_11/C 0
4 DC1.DOP_n1 DC1.DOP_n3 1.49333
5 DC1.DOP_n3 DC1.DOP_n4 1.06667
6 DC1.DOP_n4 OAI21X1_7/C 0
7 DC1.DOP_n3 DC1.DOP_n5 7.15333
8 DC1.DOP_n5 DC1.DOP_n6 4.69333
9 DC1.DOP_n6 OAI21X1_27/C 0
10 DC1.DOP_n5 DC1.DOP_n7 5.4
11 DC1.DOP_n7 DC1.DOP_n8 1.70667
12 DC1.DOP_n8 NOR2X1_11/B 0
13 DC1.DOP_n7 DC1.DOP_n9 4.05333
14 DC1.DOP_n9 DC1.DOP_n10 0.8
15 DC1.DOP_n10 NOR2X1_13/A 0
16 DC1.DOP_n9 DC1.DOP_n11 0.853333
17 DC1.DOP_n11 DC1.DOP_n12 0.8
18 DC1.DOP_n12 DC1.DOP_n13 0.266667
19 DC1.DOP_n13 AOI21X1_2/C 0
20 DC1.DOP_n13 DC1.DOP_n14 1.86667
21 DC1.DOP_n14 AOI22X1_1/B 0
22 DC1.DOP_n11 DC1.DOP_n15 3.2
23 DC1.DOP_n15 DC1.DOP_n16 0.533333
24 DC1.DOP_n16 OAI21X1_5/C 0
25 DC1.DOP_n15 DC1.DOP_n17 2.77333
26 DC1.DOP_n17 DC1.DOP_n18 1.17333
27 DC1.DOP_n18 OAI22X1_1/A 0
28 DC1.DOP_n17 DC1.DOP_n19 2.13333
29 DC1.DOP_n19 DC1.DOP_n20 0.266667
30 DC1.DOP_n20 AOI21X1_1/C 0
31 DC1.DOP_n20 DC1.DOP_n21 0.853333
32 DC1.DOP_n21 AOI21X1_6/C 0
33 DC1.DOP_n20 DC1.DOP_n22 4.26667
34 DC1.DOP_n22 DC1.DOP_n23 1.28
35 DC1.DOP_n23 AOI21X1_3/C 0
36 DC1.DOP_n22 DC1.DOP_n24 3.26667
37 DC1.DOP_n24 DC1.DOP_n25 0.533333
38 DC1.DOP_n25 DC1.DOP_n26 1.86667
39 DC1.DOP_n26 AOI21X1_4/C 0
40 DC1.DOP_n25 DC1.DOP_n27 3.68
41 DC1.DOP_n27 MUX2X1_2/S 0
42 DC1.DOP_n24 DC1.DOP_n28 6.58
43 DC1.DOP_n28 DC1.DOP_n29 0.533333
44 DC1.DOP_n29 OAI21X1_21/C 0
45 DC1.DOP_n28 DC1.DOP_n30 5.65333
46 DC1.DOP_n30 OAI21X1_16/C 0
*D_NET DC1.LD 0.0148538
*CONN
*P NOR2X1_4/Y *D NOR2X1
*I INVX2_3/A *L 0.0186567
*I OAI21X1_12/B *L 0.0182038
*I OAI21X1_8/B *L 0.0182038
*I OAI21X1_28/B *L 0.0182038
*I OAI21X1_4/B *L 0.0182038
*I NAND2X1_19/A *L 0.0125
*I NAND2X1_9/A *L 0.0125
*I NAND2X1_12/A *L 0.0125
*I NAND2X1_17/A *L 0.0125
*I OAI21X1_3/B *L 0.0182038
*I OAI21X1_22/B *L 0.0182038
*I NAND2X1_8/A *L 0.0125
*I NAND2X1_16/A *L 0.0125
*I OAI21X1_17/B *L 0.0182038
*I NAND2X1_15/A *L 0.0125
*CAP
1 DC1.LD_n1 0.00190446
2 DC1.LD_n2 0.00140144
3 DC1.LD_n3 0.0013896
4 DC1.LD_n4 0.0003285
5 DC1.LD_n5 0.00078744
6 DC1.LD_n6 0.00074538
7 DC1.LD_n7 0.0010512
8 DC1.LD_n8 6.57e-05
9 DC1.LD_n9 0.00124308
10 DC1.LD_n10 0.00020466
11 DC1.LD_n11 0.00035076
12 DC1.LD_n12 0.0005256
13 DC1.LD_n13 0.00014624
14 DC1.LD_n14 0.00018528
15 DC1.LD_n15 0.00010512
16 DC1.LD_n16 0.0002904
17 DC1.LD_n17 6.57e-05
18 DC1.LD_n18 0.00068724
19 DC1.LD_n19 0.0001314
20 DC1.LD_n20 6.57e-05
21 DC1.LD_n21 0.0005913
22 DC1.LD_n22 0.00100776
23 DC1.LD_n23 0.00031668
24 DC1.LD_n24 0.00014624
25 DC1.LD_n25 0.0005913
26 DC1.LD_n26 0.0005256
*RES
1 NOR2X1_4/Y DC1.LD_n1 9.00667
2 DC1.LD_n1 DC1.LD_n2 7.25333
3 DC1.LD_n2 INVX2_3/A 0
4 DC1.LD_n1 DC1.LD_n3 6.4
5 DC1.LD_n3 DC1.LD_n4 1.33333
6 DC1.LD_n4 OAI21X1_12/B 0
7 DC1.LD_n3 DC1.LD_n5 3.62667
8 DC1.LD_n5 DC1.LD_n6 3.25333
9 DC1.LD_n6 OAI21X1_8/B 0
10 DC1.LD_n5 DC1.LD_n7 4.26667
11 DC1.LD_n7 DC1.LD_n8 0.266667
12 DC1.LD_n8 OAI21X1_28/B 0
13 DC1.LD_n8 DC1.LD_n9 5.65333
14 DC1.LD_n9 DC1.LD_n10 0.906667
15 DC1.LD_n10 DC1.LD_n11 1.17333
16 DC1.LD_n11 OAI21X1_4/B 0
17 DC1.LD_n10 DC1.LD_n12 2.13333
18 DC1.LD_n12 DC1.LD_n13 0.426667
19 DC1.LD_n13 NAND2X1_19/A 0
20 DC1.LD_n12 DC1.LD_n14 0.853333
21 DC1.LD_n14 DC1.LD_n15 0.426667
22 DC1.LD_n15 NAND2X1_9/A 0
23 DC1.LD_n14 DC1.LD_n16 1.28
24 DC1.LD_n16 DC1.LD_n17 0.266667
25 DC1.LD_n17 NAND2X1_12/A 0
26 DC1.LD_n17 DC1.LD_n18 3.09333
27 DC1.LD_n18 DC1.LD_n19 0.533333
28 DC1.LD_n19 DC1.LD_n20 0.266667
29 DC1.LD_n20 NAND2X1_17/A 0
30 DC1.LD_n20 DC1.LD_n21 2.4
31 DC1.LD_n21 OAI21X1_3/B 0
32 DC1.LD_n21 DC1.LD_n22 3.84
33 DC1.LD_n22 OAI21X1_22/B 0
34 DC1.LD_n18 DC1.LD_n23 1.38667
35 DC1.LD_n23 NAND2X1_8/A 0
36 DC1.LD_n23 DC1.LD_n24 0.426667
37 DC1.LD_n24 NAND2X1_16/A 0
38 DC1.LD_n24 DC1.LD_n25 2.4
39 DC1.LD_n25 OAI21X1_17/B 0
40 DC1.LD_n9 DC1.LD_n26 2.13333
41 DC1.LD_n26 NAND2X1_15/A 0
*D_NET OPC1.INST<3> 0.0103249
*CONN
*P DFFPOSX1_46/Q *D DFFPOSX1
*I NAND2X1_43/A *L 0.0125
*I NOR2X1_47/A *L 0.0144193
*I NOR2X1_3/B *L 0.0150643
*I NAND2X1_3/B *L 0.0129035
*I NAND2X1_37/A *L 0.0125
*I NOR2X1_2/A *L 0.0144193
*I INVX1_1/A *L 0.00932456
*I INVX2_10/A *L 0.0186567
*I AND2X2_16/A *L 0.0129068
*I NAND2X1_4/A *L 0.0125
*I NOR2X1_45/A *L 0.0144193
*I NAND3X1_19/A *L 0.0158812
*I NAND2X1_32/A *L 0.0125
*I NAND2X1_39/A *L 0.0125
*CAP
1 OPC1.INST<3>_n1 0.0003942
2 OPC1.INST<3>_n2 0.00010512
3 OPC1.INST<3>_n3 0.00038994
4 OPC1.INST<3>_n4 0.0001314
5 OPC1.INST<3>_n5 0.0014832
6 OPC1.INST<3>_n6 0.0001314
7 OPC1.INST<3>_n7 0.00032424
8 OPC1.INST<3>_n8 0.00010512
9 OPC1.INST<3>_n9 0.00056766
10 OPC1.INST<3>_n10 6.57e-05
11 OPC1.INST<3>_n11 0.0004599
12 OPC1.INST<3>_n12 6.57e-05
13 OPC1.INST<3>_n13 0.00033672
14 OPC1.INST<3>_n14 0.0003721
15 OPC1.INST<3>_n15 0.00083376
16 OPC1.INST<3>_n16 0.0004599
17 OPC1.INST<3>_n17 0.00074112
18 OPC1.INST<3>_n18 0.0001314
19 OPC1.INST<3>_n19 0.0002316
20 OPC1.INST<3>_n20 0.00022404
21 OPC1.INST<3>_n21 0.0003942
22 OPC1.INST<3>_n22 6.57e-05
23 OPC1.INST<3>_n23 0.0008541
24 OPC1.INST<3>_n24 0.00014624
25 OPC1.INST<3>_n25 0.0004287
26 OPC1.INST<3>_n26 6.57e-05
27 OPC1.INST<3>_n27 0.000816
*RES
1 DFFPOSX1_46/Q OPC1.INST<3>_n1 1.6
2 OPC1.INST<3>_n1 OPC1.INST<3>_n2 0.426667
3 OPC1.INST<3>_n2 NAND2X1_43/A 0
4 OPC1.INST<3>_n1 OPC1.INST<3>_n3 1.76
5 OPC1.INST<3>_n3 OPC1.INST<3>_n4 0.533333
6 OPC1.INST<3>_n4 NOR2X1_47/A 0
7 OPC1.INST<3>_n3 OPC1.INST<3>_n5 6.4
8 OPC1.INST<3>_n5 OPC1.INST<3>_n6 0.533333
9 OPC1.INST<3>_n6 NOR2X1_3/B 0
10 OPC1.INST<3>_n5 OPC1.INST<3>_n7 1.49333
11 OPC1.INST<3>_n7 OPC1.INST<3>_n8 0.426667
12 OPC1.INST<3>_n8 NAND2X1_3/B 0
13 OPC1.INST<3>_n7 OPC1.INST<3>_n9 2.50667
14 OPC1.INST<3>_n9 OPC1.INST<3>_n10 0.266667
15 OPC1.INST<3>_n10 NAND2X1_37/A 0
16 OPC1.INST<3>_n10 OPC1.INST<3>_n11 1.86667
17 OPC1.INST<3>_n11 OPC1.INST<3>_n12 0.266667
18 OPC1.INST<3>_n12 NOR2X1_2/A 0
19 OPC1.INST<3>_n12 OPC1.INST<3>_n13 1.49333
20 OPC1.INST<3>_n13 OPC1.INST<3>_n14 1.33333
21 OPC1.INST<3>_n14 INVX1_1/A 0
22 OPC1.INST<3>_n13 OPC1.INST<3>_n15 3.84
23 OPC1.INST<3>_n15 OPC1.INST<3>_n16 1.86667
24 OPC1.INST<3>_n16 INVX2_10/A 0
25 OPC1.INST<3>_n15 OPC1.INST<3>_n17 3.41333
26 OPC1.INST<3>_n17 OPC1.INST<3>_n18 0.533333
27 OPC1.INST<3>_n18 AND2X2_16/A 0
28 OPC1.INST<3>_n17 OPC1.INST<3>_n19 1.06667
29 OPC1.INST<3>_n19 OPC1.INST<3>_n20 0.96
30 OPC1.INST<3>_n20 NAND2X1_4/A 0
31 OPC1.INST<3>_n19 OPC1.INST<3>_n21 1.6
32 OPC1.INST<3>_n21 OPC1.INST<3>_n22 0.266667
33 OPC1.INST<3>_n22 NOR2X1_45/A 0
34 OPC1.INST<3>_n22 OPC1.INST<3>_n23 3.46667
35 OPC1.INST<3>_n23 OPC1.INST<3>_n24 0.426667
36 OPC1.INST<3>_n24 NAND3X1_19/A 0
37 OPC1.INST<3>_n23 OPC1.INST<3>_n25 1.86667
38 OPC1.INST<3>_n25 OPC1.INST<3>_n26 0.266667
39 OPC1.INST<3>_n26 NAND2X1_32/A 0
40 OPC1.INST<3>_n26 OPC1.INST<3>_n27 3.41333
41 OPC1.INST<3>_n27 NAND2X1_39/A 0
*D_NET _148_ 0.0127959
*CONN
*P INVX8_1/Y *D INVX8
*I AOI21X1_15/A *L 0.0173593
*I OAI21X1_33/B *L 0.0182038
*I OAI21X1_35/C *L 0.0129138
*I NOR2X1_34/B *L 0.0150643
*I OAI21X1_37/A *L 0.017346
*I AOI21X1_18/A *L 0.0173593
*I AOI21X1_17/A *L 0.0173593
*I AOI21X1_20/A *L 0.0173593
*I OAI21X1_40/B *L 0.0182038
*I OAI21X1_41/C *L 0.0129138
*I OAI21X1_42/A *L 0.017346
*I AOI21X1_21/C *L 0.0150799
*I NAND2X1_28/A *L 0.0125
*I OAI21X1_38/B *L 0.0182038
*CAP
1 _148__n1 0.00136304
2 _148__n2 0.00032424
3 _148__n3 0.00010512
4 _148__n4 0.0004632
5 _148__n5 0.00010512
6 _148__n6 0.00040216
7 _148__n7 0.00150284
8 _148__n8 0.0008541
9 _148__n9 0.00014624
10 _148__n10 5.79e-05
11 _148__n11 0.00027792
12 _148__n12 0.0001314
13 _148__n13 0.00078744
14 _148__n14 0.00027036
15 _148__n15 0.0014054
16 _148__n16 0.00014624
17 _148__n17 0.00080324
18 _148__n18 6.57e-05
19 _148__n19 0.00050952
20 _148__n20 0.0001314
21 _148__n21 0.00088008
22 _148__n22 0.0001314
23 _148__n23 0.00032904
24 _148__n24 0.00077988
25 _148__n25 0.0008229
*RES
1 INVX8_1/Y _148__n1 5.97333
2 _148__n1 _148__n2 1.49333
3 _148__n2 _148__n3 0.426667
4 _148__n3 AOI21X1_15/A 0
5 _148__n2 _148__n4 2.13333
6 _148__n4 _148__n5 0.426667
7 _148__n5 OAI21X1_33/B 0
8 _148__n5 _148__n6 1.17333
9 _148__n6 OAI21X1_35/C 0
10 _148__n4 _148__n7 7.62
11 _148__n7 NOR2X1_34/B 0
12 _148__n1 _148__n8 3.46667
13 _148__n8 _148__n9 0.426667
14 _148__n9 OAI21X1_37/A 0
15 _148__n8 _148__n10 0.266667
16 _148__n10 _148__n11 1.28
17 _148__n11 _148__n12 0.533333
18 _148__n12 AOI21X1_18/A 0
19 _148__n11 _148__n13 3.62667
20 _148__n13 _148__n14 1.17333
21 _148__n14 AOI21X1_17/A 0
22 _148__n13 _148__n15 5.6
23 _148__n15 _148__n16 0.426667
24 _148__n16 AOI21X1_20/A 0
25 _148__n15 _148__n17 3.09333
26 _148__n17 _148__n18 0.266667
27 _148__n18 OAI21X1_40/B 0
28 _148__n18 _148__n19 2.34667
29 _148__n19 _148__n20 0.533333
30 _148__n20 OAI21X1_41/C 0
31 _148__n19 _148__n21 4.05333
32 _148__n21 _148__n22 0.533333
33 _148__n22 OAI21X1_42/A 0
34 _148__n22 _148__n23 0.96
35 _148__n23 AOI21X1_21/C 0
36 _148__n21 _148__n24 3.52
37 _148__n24 NAND2X1_28/A 0
38 _148__n10 _148__n25 3.46667
39 _148__n25 OAI21X1_38/B 0
*D_NET DC1.INP 0.0152521
*CONN
*P NOR2X1_7/Y *D NOR2X1
*I NOR2X1_11/A *L 0.0144193
*I OAI21X1_13/B *L 0.0182038
*I AOI21X1_2/A *L 0.0173593
*I OAI21X1_29/B *L 0.0182038
*I INVX2_4/A *L 0.0186567
*I AOI21X1_6/A *L 0.0173593
*I AOI21X1_1/A *L 0.0173593
*I AOI21X1_3/A *L 0.0173593
*I OAI21X1_18/B *L 0.0182038
*I AOI21X1_4/A *L 0.0173593
*I OAI21X1_23/B *L 0.0182038
*I OAI21X1_9/B *L 0.0182038
*CAP
1 DC1.INP_n1 0.00433428
2 DC1.INP_n2 0.000657
3 DC1.INP_n3 0.00106536
4 DC1.INP_n4 0.0003285
5 DC1.INP_n5 0.00078414
6 DC1.INP_n6 0.0001314
7 DC1.INP_n7 6.57e-05
8 DC1.INP_n8 0.00044808
9 DC1.INP_n9 0.0004632
10 DC1.INP_n10 0.0001971
11 DC1.INP_n11 0.00048258
12 DC1.INP_n12 0.0007227
13 DC1.INP_n13 0.000522
14 DC1.INP_n14 6.57e-05
15 DC1.INP_n15 0.00109656
16 DC1.INP_n16 6.57e-05
17 DC1.INP_n17 0.00086166
18 DC1.INP_n18 0.00010512
19 DC1.INP_n19 0.0007884
20 DC1.INP_n20 6.57e-05
21 DC1.INP_n21 0.0011323
22 DC1.INP_n22 0.00086894
*RES
1 NOR2X1_7/Y DC1.INP_n1 18.4533
2 DC1.INP_n1 DC1.INP_n2 2.66667
3 DC1.INP_n2 NOR2X1_11/A 0
4 DC1.INP_n1 DC1.INP_n3 4.90667
5 DC1.INP_n3 DC1.INP_n4 1.33333
6 DC1.INP_n4 OAI21X1_13/B 0
7 DC1.INP_n3 DC1.INP_n5 3.36
8 DC1.INP_n5 DC1.INP_n6 0.533333
9 DC1.INP_n6 DC1.INP_n7 0.266667
10 DC1.INP_n7 AOI21X1_2/A 0
11 DC1.INP_n7 DC1.INP_n8 1.92
12 DC1.INP_n8 OAI21X1_29/B 0
13 DC1.INP_n5 DC1.INP_n9 2.13333
14 DC1.INP_n9 DC1.INP_n10 0.8
15 DC1.INP_n10 INVX2_4/A 0
16 DC1.INP_n9 DC1.INP_n11 2.18667
17 DC1.INP_n11 DC1.INP_n12 2.93333
18 DC1.INP_n12 AOI21X1_6/A 0
19 DC1.INP_n12 DC1.INP_n13 2.34667
20 DC1.INP_n13 DC1.INP_n14 0.266667
21 DC1.INP_n14 AOI21X1_1/A 0
22 DC1.INP_n14 DC1.INP_n15 4.90667
23 DC1.INP_n15 DC1.INP_n16 0.266667
24 DC1.INP_n16 AOI21X1_3/A 0
25 DC1.INP_n16 DC1.INP_n17 3.57333
26 DC1.INP_n17 DC1.INP_n18 0.426667
27 DC1.INP_n18 OAI21X1_18/B 0
28 DC1.INP_n17 DC1.INP_n19 3.2
29 DC1.INP_n19 DC1.INP_n20 0.266667
30 DC1.INP_n20 AOI21X1_4/A 0
31 DC1.INP_n20 DC1.INP_n21 5.09333
32 DC1.INP_n21 OAI21X1_23/B 0
33 DC1.INP_n11 DC1.INP_n22 3.36
34 DC1.INP_n22 OAI21X1_9/B 0
*D_NET OPC1.INST<2> 0.0093613
*CONN
*P DFFPOSX1_45/Q *D DFFPOSX1
*I AND2X2_15/A *L 0.0129068
*I INVX1_32/A *L 0.00932456
*I NAND2X1_38/A *L 0.0125
*I AND2X2_16/B *L 0.0125119
*I NAND2X1_37/B *L 0.0129035
*I INVX1_2/A *L 0.00932456
*I NOR2X1_47/B *L 0.0150643
*I NAND2X1_1/A *L 0.0125
*I NAND2X1_4/B *L 0.0129035
*I OAI21X1_46/A *L 0.017346
*CAP
1 OPC1.INST<2>_n1 0.00014624
2 OPC1.INST<2>_n2 0.0003285
3 OPC1.INST<2>_n3 6.57e-05
4 OPC1.INST<2>_n4 0.000522
5 OPC1.INST<2>_n5 0.0001314
6 OPC1.INST<2>_n6 6.57e-05
7 OPC1.INST<2>_n7 0.00161622
8 OPC1.INST<2>_n8 0.00010512
9 OPC1.INST<2>_n9 6.57e-05
10 OPC1.INST<2>_n10 0.00138204
11 OPC1.INST<2>_n11 0.00089616
12 OPC1.INST<2>_n12 0.0001971
13 OPC1.INST<2>_n13 0.0004632
14 OPC1.INST<2>_n14 0.0001314
15 OPC1.INST<2>_n15 0.0015494
16 OPC1.INST<2>_n16 6.57e-05
17 OPC1.INST<2>_n17 0.0005946
18 OPC1.INST<2>_n18 0.00103512
*RES
1 DFFPOSX1_45/Q OPC1.INST<2>_n1 0.426667
2 OPC1.INST<2>_n1 AND2X2_15/A 0
3 OPC1.INST<2>_n1 OPC1.INST<2>_n2 1.33333
4 OPC1.INST<2>_n2 OPC1.INST<2>_n3 0.266667
5 OPC1.INST<2>_n3 INVX1_32/A 0
6 OPC1.INST<2>_n3 OPC1.INST<2>_n4 2.34667
7 OPC1.INST<2>_n4 OPC1.INST<2>_n5 0.533333
8 OPC1.INST<2>_n5 OPC1.INST<2>_n6 0.266667
9 OPC1.INST<2>_n6 NAND2X1_38/A 0
10 OPC1.INST<2>_n6 OPC1.INST<2>_n7 6.56
11 OPC1.INST<2>_n7 OPC1.INST<2>_n8 0.426667
12 OPC1.INST<2>_n8 AND2X2_16/B 0
13 OPC1.INST<2>_n7 OPC1.INST<2>_n9 0.266667
14 OPC1.INST<2>_n9 OPC1.INST<2>_n10 6.29333
15 OPC1.INST<2>_n10 OPC1.INST<2>_n11 3.84
16 OPC1.INST<2>_n11 OPC1.INST<2>_n12 0.8
17 OPC1.INST<2>_n12 NAND2X1_37/B 0
18 OPC1.INST<2>_n11 OPC1.INST<2>_n13 2.13333
19 OPC1.INST<2>_n13 OPC1.INST<2>_n14 0.533333
20 OPC1.INST<2>_n14 INVX1_2/A 0
21 OPC1.INST<2>_n13 OPC1.INST<2>_n15 7.51333
22 OPC1.INST<2>_n15 NOR2X1_47/B 0
23 OPC1.INST<2>_n10 OPC1.INST<2>_n16 0.266667
24 OPC1.INST<2>_n16 NAND2X1_1/A 0
25 OPC1.INST<2>_n9 OPC1.INST<2>_n17 2.66667
26 OPC1.INST<2>_n17 NAND2X1_4/B 0
27 OPC1.INST<2>_n4 OPC1.INST<2>_n18 4.48
28 OPC1.INST<2>_n18 OAI21X1_46/A 0
*D_NET OPC1.INST<1> 0.00782318
*CONN
*P DFFPOSX1_44/Q *D DFFPOSX1
*I NAND2X1_36/B *L 0.0129035
*I OR2X2_1/A *L 0.015065
*I INVX1_3/A *L 0.00932456
*I NAND2X1_2/A *L 0.0125
*I NOR2X1_3/A *L 0.0144193
*I NAND3X1_19/B *L 0.0159247
*I AND2X2_15/B *L 0.0125119
*I OAI21X1_46/B *L 0.0182038
*I INVX4_3/A *L 0.0373134
*CAP
1 OPC1.INST<1>_n1 0.00014624
2 OPC1.INST<1>_n2 0.00042936
3 OPC1.INST<1>_n3 5.79e-05
4 OPC1.INST<1>_n4 0.0003285
5 OPC1.INST<1>_n5 0.00088008
6 OPC1.INST<1>_n6 0.0003285
7 OPC1.INST<1>_n7 0.00101904
8 OPC1.INST<1>_n8 0.0001971
9 OPC1.INST<1>_n9 0.00064092
10 OPC1.INST<1>_n10 0.00112446
11 OPC1.INST<1>_n11 0.00010512
12 OPC1.INST<1>_n12 0.00084228
13 OPC1.INST<1>_n13 6.57e-05
14 OPC1.INST<1>_n14 0.00084624
15 OPC1.INST<1>_n15 6.57e-05
16 OPC1.INST<1>_n16 0.00074604
*RES
1 DFFPOSX1_44/Q OPC1.INST<1>_n1 0.426667
2 OPC1.INST<1>_n1 NAND2X1_36/B 0
3 OPC1.INST<1>_n1 OPC1.INST<1>_n2 1.92
4 OPC1.INST<1>_n2 OPC1.INST<1>_n3 0.266667
5 OPC1.INST<1>_n3 OPC1.INST<1>_n4 1.33333
6 OPC1.INST<1>_n4 OR2X2_1/A 0
7 OPC1.INST<1>_n3 OPC1.INST<1>_n5 4.05333
8 OPC1.INST<1>_n5 OPC1.INST<1>_n6 1.33333
9 OPC1.INST<1>_n6 INVX1_3/A 0
10 OPC1.INST<1>_n5 OPC1.INST<1>_n7 4.69333
11 OPC1.INST<1>_n7 OPC1.INST<1>_n8 0.8
12 OPC1.INST<1>_n8 NAND2X1_2/A 0
13 OPC1.INST<1>_n7 OPC1.INST<1>_n9 2.88
14 OPC1.INST<1>_n9 NOR2X1_3/A 0
15 OPC1.INST<1>_n3 OPC1.INST<1>_n10 4.64
16 OPC1.INST<1>_n10 OPC1.INST<1>_n11 0.426667
17 OPC1.INST<1>_n11 NAND3X1_19/B 0
18 OPC1.INST<1>_n10 OPC1.INST<1>_n12 3.52
19 OPC1.INST<1>_n12 OPC1.INST<1>_n13 0.266667
20 OPC1.INST<1>_n13 AND2X2_15/B 0
21 OPC1.INST<1>_n13 OPC1.INST<1>_n14 3.84
22 OPC1.INST<1>_n14 OPC1.INST<1>_n15 0.266667
23 OPC1.INST<1>_n15 OAI21X1_46/B 0
24 OPC1.INST<1>_n15 OPC1.INST<1>_n16 3.30667
25 OPC1.INST<1>_n16 INVX4_3/A 0
*D_NET DPC1.DPOP 0.0119483
*CONN
*P AND2X2_1/Y *D AND2X2
*I OAI21X1_33/C *L 0.0129138
*I NAND2X1_22/A *L 0.0125
*I NAND3X1_9/A *L 0.0158812
*I OAI21X1_31/C *L 0.0129138
*I XOR2X1_3/B *L 0.0342661
*I OAI21X1_43/C *L 0.0129138
*I NAND3X1_14/A *L 0.0158812
*I INVX2_8/A *L 0.0186567
*I AND2X2_14/B *L 0.0125119
*CAP
1 DPC1.DPOP_n1 0.00258636
2 DPC1.DPOP_n2 0.00064848
3 DPC1.DPOP_n3 0.0001971
4 DPC1.DPOP_n4 0.00037056
5 DPC1.DPOP_n5 0.00089568
6 DPC1.DPOP_n6 0.0007071
7 DPC1.DPOP_n7 6.57e-05
8 DPC1.DPOP_n8 0.00086166
9 DPC1.DPOP_n9 6.57e-05
10 DPC1.DPOP_n10 0.00104004
11 DPC1.DPOP_n11 0.0014322
12 DPC1.DPOP_n12 0.00032042
13 DPC1.DPOP_n13 0.00010512
14 DPC1.DPOP_n14 0.00029248
15 DPC1.DPOP_n15 0.0016524
16 DPC1.DPOP_n16 0.00070728
*RES
1 AND2X2_1/Y DPC1.DPOP_n1 11.84
2 DPC1.DPOP_n1 DPC1.DPOP_n2 2.98667
3 DPC1.DPOP_n2 DPC1.DPOP_n3 0.8
4 DPC1.DPOP_n3 OAI21X1_33/C 0
5 DPC1.DPOP_n2 DPC1.DPOP_n4 1.70667
6 DPC1.DPOP_n4 DPC1.DPOP_n5 4.05333
7 DPC1.DPOP_n5 NAND2X1_22/A 0
8 DPC1.DPOP_n4 DPC1.DPOP_n6 2.93333
9 DPC1.DPOP_n6 DPC1.DPOP_n7 0.266667
10 DPC1.DPOP_n7 NAND3X1_9/A 0
11 DPC1.DPOP_n7 DPC1.DPOP_n8 3.57333
12 DPC1.DPOP_n8 DPC1.DPOP_n9 0.266667
13 DPC1.DPOP_n9 OAI21X1_31/C 0
14 DPC1.DPOP_n9 DPC1.DPOP_n10 4.37333
15 DPC1.DPOP_n10 XOR2X1_3/B 0
16 DPC1.DPOP_n1 DPC1.DPOP_n11 7.7
17 DPC1.DPOP_n11 DPC1.DPOP_n12 1.49333
18 DPC1.DPOP_n12 DPC1.DPOP_n13 0.426667
19 DPC1.DPOP_n13 OAI21X1_43/C 0
20 DPC1.DPOP_n13 DPC1.DPOP_n14 0.853333
21 DPC1.DPOP_n14 NAND3X1_14/A 0
22 DPC1.DPOP_n12 DPC1.DPOP_n15 7.46667
23 DPC1.DPOP_n15 INVX2_8/A 0
24 DPC1.DPOP_n11 DPC1.DPOP_n16 3.48667
25 DPC1.DPOP_n16 AND2X2_14/B 0
*D_NET DC1.WDATA<3> 0.00938462
*CONN
*P DFFPOSX1_21/Q *D DFFPOSX1
*I NOR2X1_8/A *L 0.0144193
*I NOR2X1_16/A *L 0.0144193
*I OAI21X1_7/B *L 0.0182038
*I AND2X2_4/B *L 0.0125119
*I NOR3X1_2/A *L 0.019824
*I NAND2X1_14/A *L 0.0125
*I AND2X2_6/A *L 0.0129068
*I INVX1_6/A *L 0.00932456
*I BUFX2_55/A *L 0.00933171
*CAP
1 DC1.WDATA<3>_n1 0.0007884
2 DC1.WDATA<3>_n2 0.00035544
3 DC1.WDATA<3>_n3 0.00060216
4 DC1.WDATA<3>_n4 0.0001971
5 DC1.WDATA<3>_n5 0.00077658
6 DC1.WDATA<3>_n6 0.00054044
7 DC1.WDATA<3>_n7 0.00053316
8 DC1.WDATA<3>_n8 0.00096516
9 DC1.WDATA<3>_n9 0.0002628
10 DC1.WDATA<3>_n10 0.00014624
11 DC1.WDATA<3>_n11 0.00074604
12 DC1.WDATA<3>_n12 0.0002628
13 DC1.WDATA<3>_n13 6.57e-05
14 DC1.WDATA<3>_n14 0.0009198
15 DC1.WDATA<3>_n15 0.00040932
16 DC1.WDATA<3>_n16 0.00181348
*RES
1 DFFPOSX1_21/Q DC1.WDATA<3>_n1 3.2
2 DC1.WDATA<3>_n1 DC1.WDATA<3>_n2 1.49333
3 DC1.WDATA<3>_n2 NOR2X1_8/A 0
4 DC1.WDATA<3>_n1 DC1.WDATA<3>_n3 2.77333
5 DC1.WDATA<3>_n3 DC1.WDATA<3>_n4 0.8
6 DC1.WDATA<3>_n4 NOR2X1_16/A 0
7 DC1.WDATA<3>_n4 DC1.WDATA<3>_n5 3.25333
8 DC1.WDATA<3>_n5 DC1.WDATA<3>_n6 2.02667
9 DC1.WDATA<3>_n6 OAI21X1_7/B 0
10 DC1.WDATA<3>_n5 DC1.WDATA<3>_n7 2.24
11 DC1.WDATA<3>_n7 AND2X2_4/B 0
12 DC1.WDATA<3>_n3 DC1.WDATA<3>_n8 4.37333
13 DC1.WDATA<3>_n8 DC1.WDATA<3>_n9 1.06667
14 DC1.WDATA<3>_n9 DC1.WDATA<3>_n10 0.426667
15 DC1.WDATA<3>_n10 NOR3X1_2/A 0
16 DC1.WDATA<3>_n9 DC1.WDATA<3>_n11 3.30667
17 DC1.WDATA<3>_n11 NAND2X1_14/A 0
18 DC1.WDATA<3>_n8 DC1.WDATA<3>_n12 1.06667
19 DC1.WDATA<3>_n12 DC1.WDATA<3>_n13 0.266667
20 DC1.WDATA<3>_n13 AND2X2_6/A 0
21 DC1.WDATA<3>_n13 DC1.WDATA<3>_n14 3.73333
22 DC1.WDATA<3>_n14 DC1.WDATA<3>_n15 1.81333
23 DC1.WDATA<3>_n15 INVX1_6/A 0
24 DC1.WDATA<3>_n14 DC1.WDATA<3>_n16 7.78667
25 DC1.WDATA<3>_n16 BUFX2_55/A 0
*D_NET NEXTOP<0> 0.00949908
*CONN
*P NEXTOP<0>/pin *I OAI21X1_48/B *L 0.0182038
*I INVX1_34/A *L 0.00932456
*I NOR3X1_11/A *L 0.019824
*I NAND3X1_22/C *L 0.0164926
*I NAND2X1_34/A *L 0.0125
*I NAND3X1_16/A *L 0.0158812
*I NOR2X1_46/A *L 0.0144193
*I OAI21X1_47/B *L 0.0182038
*I NOR2X1_50/A *L 0.0144193
*CAP
1 NEXTOP<0>_n1 0.0005913
2 NEXTOP<0>_n2 0.001862
3 NEXTOP<0>_n3 6.57e-05
4 NEXTOP<0>_n4 0.00010512
5 NEXTOP<0>_n5 0.0006603
6 NEXTOP<0>_n6 0.0005877
7 NEXTOP<0>_n7 0.0001971
8 NEXTOP<0>_n8 0.0005913
9 NEXTOP<0>_n9 0.00035076
10 NEXTOP<0>_n10 0.00027792
11 NEXTOP<0>_n11 0.00018528
12 NEXTOP<0>_n12 0.0003285
13 NEXTOP<0>_n13 0.0019431
14 NEXTOP<0>_n14 0.00086894
15 NEXTOP<0>_n15 0.00021194
16 NEXTOP<0>_n16 0.00067212
*RES
1 NEXTOP<0>/pin NEXTOP<0>_n1 2.4
2 NEXTOP<0>_n1 OAI21X1_48/B 0
3 NEXTOP<0>_n1 NEXTOP<0>_n2 7.46667
4 NEXTOP<0>_n2 NEXTOP<0>_n3 0.266667
5 NEXTOP<0>_n3 INVX1_34/A 0
6 NEXTOP<0>_n3 NEXTOP<0>_n4 0.426667
7 NEXTOP<0>_n4 NEXTOP<0>_n5 2.93333
8 NEXTOP<0>_n5 NEXTOP<0>_n6 2.61333
9 NEXTOP<0>_n6 NEXTOP<0>_n7 0.8
10 NEXTOP<0>_n7 NOR3X1_11/A 0
11 NEXTOP<0>_n6 NEXTOP<0>_n8 2.4
12 NEXTOP<0>_n8 NEXTOP<0>_n9 1.17333
13 NEXTOP<0>_n9 NAND3X1_22/C 0
14 NEXTOP<0>_n8 NEXTOP<0>_n10 1.28
15 NEXTOP<0>_n10 NEXTOP<0>_n11 0.853333
16 NEXTOP<0>_n11 NEXTOP<0>_n12 1.33333
17 NEXTOP<0>_n12 NAND2X1_34/A 0
18 NEXTOP<0>_n11 NEXTOP<0>_n13 8.26667
19 NEXTOP<0>_n13 NAND3X1_16/A 0
20 NEXTOP<0>_n10 NEXTOP<0>_n14 3.36
21 NEXTOP<0>_n14 NOR2X1_46/A 0
22 NEXTOP<0>_n5 NEXTOP<0>_n15 0.693333
23 NEXTOP<0>_n15 OAI21X1_47/B 0
24 NEXTOP<0>_n4 NEXTOP<0>_n16 2.88
25 NEXTOP<0>_n16 NOR2X1_50/A 0
*D_NET clk_bF$buf5 0.00838494
*CONN
*P BUFX4_7/Y *D BUFX4
*I DFFPOSX1_36/CLK *L 0.0279235
*I DFFPOSX1_21/CLK *L 0.0279235
*I DFFPOSX1_22/CLK *L 0.0279235
*I DFFPOSX1_35/CLK *L 0.0279235
*I DFFPOSX1_31/CLK *L 0.0279235
*I DFFPOSX1_33/CLK *L 0.0279235
*I DFFPOSX1_20/CLK *L 0.0279235
*I DFFPOSX1_23/CLK *L 0.0279235
*CAP
1 clk_bF$buf5_n1 0.0004521
2 clk_bF$buf5_n2 0.00021936
3 clk_bF$buf5_n3 0.00038616
4 clk_bF$buf5_n4 0.00226044
5 clk_bF$buf5_n5 0.00070638
6 clk_bF$buf5_n6 0.0002472
7 clk_bF$buf5_n7 0.00084936
8 clk_bF$buf5_n8 0.0004599
9 clk_bF$buf5_n9 0.00156804
10 clk_bF$buf5_n10 0.0002472
11 clk_bF$buf5_n11 0.0009888
*RES
1 BUFX4_7/Y clk_bF$buf5_n1 1.86667
2 clk_bF$buf5_n1 clk_bF$buf5_n2 0.64
3 clk_bF$buf5_n2 DFFPOSX1_36/CLK 0
4 clk_bF$buf5_n1 clk_bF$buf5_n3 1.70667
5 clk_bF$buf5_n3 DFFPOSX1_21/CLK 0
6 clk_bF$buf5_n3 clk_bF$buf5_n4 9.70667
7 clk_bF$buf5_n4 DFFPOSX1_22/CLK 0
8 clk_bF$buf5_n1 clk_bF$buf5_n5 3.25333
9 clk_bF$buf5_n5 clk_bF$buf5_n6 1.06667
10 clk_bF$buf5_n6 DFFPOSX1_35/CLK 0
11 clk_bF$buf5_n5 clk_bF$buf5_n7 3.84
12 clk_bF$buf5_n7 DFFPOSX1_31/CLK 0
13 clk_bF$buf5_n7 clk_bF$buf5_n8 1.86667
14 clk_bF$buf5_n8 DFFPOSX1_33/CLK 0
15 clk_bF$buf5_n7 clk_bF$buf5_n9 6.82667
16 clk_bF$buf5_n9 clk_bF$buf5_n10 1.06667
17 clk_bF$buf5_n10 DFFPOSX1_20/CLK 0
18 clk_bF$buf5_n9 clk_bF$buf5_n11 4.26667
19 clk_bF$buf5_n11 DFFPOSX1_23/CLK 0
*D_NET clk_bF$buf4 0.0114123
*CONN
*P BUFX4_8/Y *D BUFX4
*I DFFPOSX1_43/CLK *L 0.0279235
*I DFFPOSX1_11/CLK *L 0.0279235
*I DFFPOSX1_13/CLK *L 0.0279235
*I DFFPOSX1_26/CLK *L 0.0279235
*I DFFPOSX1_27/CLK *L 0.0279235
*I DFFPOSX1_8/CLK *L 0.0279235
*I DFFPOSX1_44/CLK *L 0.0279235
*I DFFPOSX1_45/CLK *L 0.0279235
*CAP
1 clk_bF$buf4_n1 0.00220966
2 clk_bF$buf4_n2 0.0018965
3 clk_bF$buf4_n3 0.00128664
4 clk_bF$buf4_n4 6.57e-05
5 clk_bF$buf4_n5 0.00086166
6 clk_bF$buf4_n6 0.000657
7 clk_bF$buf4_n7 0.00014624
8 clk_bF$buf4_n8 0.00087252
9 clk_bF$buf4_n9 6.57e-05
10 clk_bF$buf4_n10 0.001971
11 clk_bF$buf4_n11 0.0013797
*RES
1 BUFX4_8/Y clk_bF$buf4_n1 10.2067
2 clk_bF$buf4_n1 DFFPOSX1_43/CLK 0
3 clk_bF$buf4_n1 clk_bF$buf4_n2 7.73333
4 clk_bF$buf4_n2 DFFPOSX1_11/CLK 0
5 clk_bF$buf4_n2 clk_bF$buf4_n3 5.22667
6 clk_bF$buf4_n3 clk_bF$buf4_n4 0.266667
7 clk_bF$buf4_n4 DFFPOSX1_13/CLK 0
8 clk_bF$buf4_n4 clk_bF$buf4_n5 3.57333
9 clk_bF$buf4_n5 clk_bF$buf4_n6 2.66667
10 clk_bF$buf4_n6 DFFPOSX1_26/CLK 0
11 clk_bF$buf4_n6 clk_bF$buf4_n7 0.426667
12 clk_bF$buf4_n7 DFFPOSX1_27/CLK 0
13 clk_bF$buf4_n5 clk_bF$buf4_n8 3.94667
14 clk_bF$buf4_n8 clk_bF$buf4_n9 0.266667
15 clk_bF$buf4_n9 DFFPOSX1_8/CLK 0
16 clk_bF$buf4_n9 clk_bF$buf4_n10 8
17 clk_bF$buf4_n10 DFFPOSX1_44/CLK 0
18 clk_bF$buf4_n10 clk_bF$buf4_n11 5.6
19 clk_bF$buf4_n11 DFFPOSX1_45/CLK 0
*D_NET clk_bF$buf3 0.00590342
*CONN
*P BUFX4_9/Y *D BUFX4
*I DFFPOSX1_7/CLK *L 0.0279235
*I DFFPOSX1_15/CLK *L 0.0279235
*I DFFPOSX1_2/CLK *L 0.0279235
*I DFFPOSX1_14/CLK *L 0.0279235
*I DFFPOSX1_17/CLK *L 0.0279235
*I DFFPOSX1_16/CLK *L 0.0279235
*I DFFPOSX1_10/CLK *L 0.0279235
*I DFFPOSX1_12/CLK *L 0.0279235
*CAP
1 clk_bF$buf3_n1 0.0003942
2 clk_bF$buf3_n2 6.57e-05
3 clk_bF$buf3_n3 0.0001314
4 clk_bF$buf3_n4 0.0007884
5 clk_bF$buf3_n5 0.00075672
6 clk_bF$buf3_n6 0.0008541
7 clk_bF$buf3_n7 0.00014624
8 clk_bF$buf3_n8 0.00112416
9 clk_bF$buf3_n9 6.57e-05
10 clk_bF$buf3_n10 0.0007884
11 clk_bF$buf3_n11 0.0003942
12 clk_bF$buf3_n12 0.0003942
*RES
1 BUFX4_9/Y clk_bF$buf3_n1 1.6
2 clk_bF$buf3_n1 clk_bF$buf3_n2 0.266667
3 clk_bF$buf3_n2 DFFPOSX1_7/CLK 0
4 clk_bF$buf3_n2 clk_bF$buf3_n3 0.533333
5 clk_bF$buf3_n3 clk_bF$buf3_n4 3.2
6 clk_bF$buf3_n4 DFFPOSX1_15/CLK 0
7 clk_bF$buf3_n3 clk_bF$buf3_n5 3.41333
8 clk_bF$buf3_n5 DFFPOSX1_2/CLK 0
9 clk_bF$buf3_n5 clk_bF$buf3_n6 3.46667
10 clk_bF$buf3_n6 clk_bF$buf3_n7 0.426667
11 clk_bF$buf3_n7 DFFPOSX1_14/CLK 0
12 clk_bF$buf3_n6 clk_bF$buf3_n8 5.12
13 clk_bF$buf3_n8 clk_bF$buf3_n9 0.266667
14 clk_bF$buf3_n9 DFFPOSX1_17/CLK 0
15 clk_bF$buf3_n9 clk_bF$buf3_n10 3.2
16 clk_bF$buf3_n10 DFFPOSX1_16/CLK 0
17 clk_bF$buf3_n10 clk_bF$buf3_n11 1.6
18 clk_bF$buf3_n11 DFFPOSX1_10/CLK 0
19 clk_bF$buf3_n9 clk_bF$buf3_n12 1.6
20 clk_bF$buf3_n12 DFFPOSX1_12/CLK 0
*D_NET clk_bF$buf2 0.00885714
*CONN
*P BUFX4_10/Y *D BUFX4
*I DFFPOSX1_41/CLK *L 0.0279235
*I DFFPOSX1_46/CLK *L 0.0279235
*I DFFPOSX1_40/CLK *L 0.0279235
*I DFFPOSX1_39/CLK *L 0.0279235
*I DFFPOSX1_38/CLK *L 0.0279235
*I DFFPOSX1_37/CLK *L 0.0279235
*I DFFPOSX1_42/CLK *L 0.0279235
*I DFFPOSX1_34/CLK *L 0.0279235
*CAP
1 clk_bF$buf2_n1 0.0003285
2 clk_bF$buf2_n2 6.57e-05
3 clk_bF$buf2_n3 0.00067968
4 clk_bF$buf2_n4 6.57e-05
5 clk_bF$buf2_n5 0.00151866
6 clk_bF$buf2_n6 0.0007227
7 clk_bF$buf2_n7 6.57e-05
8 clk_bF$buf2_n8 0.00303444
9 clk_bF$buf2_n9 0.0001971
10 clk_bF$buf2_n10 0.00079926
11 clk_bF$buf2_n11 0.0004599
12 clk_bF$buf2_n12 0.0009198
*RES
1 BUFX4_10/Y clk_bF$buf2_n1 1.33333
2 clk_bF$buf2_n1 clk_bF$buf2_n2 0.266667
3 clk_bF$buf2_n2 DFFPOSX1_41/CLK 0
4 clk_bF$buf2_n2 clk_bF$buf2_n3 2.98667
5 clk_bF$buf2_n3 clk_bF$buf2_n4 0.266667
6 clk_bF$buf2_n4 DFFPOSX1_46/CLK 0
7 clk_bF$buf2_n4 clk_bF$buf2_n5 6.24
8 clk_bF$buf2_n5 DFFPOSX1_40/CLK 0
9 clk_bF$buf2_n2 clk_bF$buf2_n6 2.93333
10 clk_bF$buf2_n6 clk_bF$buf2_n7 0.266667
11 clk_bF$buf2_n7 DFFPOSX1_39/CLK 0
12 clk_bF$buf2_n7 clk_bF$buf2_n8 13.76
13 clk_bF$buf2_n8 clk_bF$buf2_n9 0.8
14 clk_bF$buf2_n9 DFFPOSX1_38/CLK 0
15 clk_bF$buf2_n8 clk_bF$buf2_n10 3.57333
16 clk_bF$buf2_n10 DFFPOSX1_37/CLK 0
17 clk_bF$buf2_n10 clk_bF$buf2_n11 1.86667
18 clk_bF$buf2_n11 DFFPOSX1_42/CLK 0
19 clk_bF$buf2_n11 clk_bF$buf2_n12 3.73333
20 clk_bF$buf2_n12 DFFPOSX1_34/CLK 0
*D_NET NEXTOP<2> 0.00683686
*CONN
*P NEXTOP<2>/pin *I NOR2X1_54/A *L 0.0144193
*I OAI21X1_55/C *L 0.0129138
*I AOI21X1_25/A *L 0.0173593
*I INVX1_33/A *L 0.00932456
*I NOR2X1_43/A *L 0.0144193
*I NAND3X1_22/A *L 0.0158812
*I NAND2X1_31/A *L 0.0125
*I NOR2X1_55/A *L 0.0144193
*CAP
1 NEXTOP<2>_n1 0.0007227
2 NEXTOP<2>_n2 6.57e-05
3 NEXTOP<2>_n3 0.0005913
4 NEXTOP<2>_n4 0.00027792
5 NEXTOP<2>_n5 0.00010512
6 NEXTOP<2>_n6 0.00111168
7 NEXTOP<2>_n7 0.0001314
8 NEXTOP<2>_n8 6.57e-05
9 NEXTOP<2>_n9 0.0005256
10 NEXTOP<2>_n10 0.00034334
11 NEXTOP<2>_n11 0.00078744
12 NEXTOP<2>_n12 0.00043248
13 NEXTOP<2>_n13 0.000255
14 NEXTOP<2>_n14 0.00142148
*RES
1 NEXTOP<2>/pin NEXTOP<2>_n1 2.93333
2 NEXTOP<2>_n1 NEXTOP<2>_n2 0.266667
3 NEXTOP<2>_n2 NOR2X1_54/A 0
4 NEXTOP<2>_n2 NEXTOP<2>_n3 2.4
5 NEXTOP<2>_n3 NEXTOP<2>_n4 1.28
6 NEXTOP<2>_n4 NEXTOP<2>_n5 0.426667
7 NEXTOP<2>_n5 OAI21X1_55/C 0
8 NEXTOP<2>_n4 NEXTOP<2>_n6 5.12
9 NEXTOP<2>_n6 NEXTOP<2>_n7 0.533333
10 NEXTOP<2>_n7 NEXTOP<2>_n8 0.266667
11 NEXTOP<2>_n8 AOI21X1_25/A 0
12 NEXTOP<2>_n8 NEXTOP<2>_n9 2.13333
13 NEXTOP<2>_n9 INVX1_33/A 0
14 NEXTOP<2>_n8 NEXTOP<2>_n10 1.22667
15 NEXTOP<2>_n10 NOR2X1_43/A 0
16 NEXTOP<2>_n6 NEXTOP<2>_n11 3.62667
17 NEXTOP<2>_n11 NEXTOP<2>_n12 1.92
18 NEXTOP<2>_n12 NAND3X1_22/A 0
19 NEXTOP<2>_n11 NEXTOP<2>_n13 1.06667
20 NEXTOP<2>_n13 NAND2X1_31/A 0
21 NEXTOP<2>_n3 NEXTOP<2>_n14 5.65333
22 NEXTOP<2>_n14 NOR2X1_55/A 0
*D_NET _227_ 0.00982652
*CONN
*P INVX4_3/Y *D INVX4
*I OAI22X1_4/B *L 0.0182258
*I OAI21X1_54/A *L 0.017346
*I NAND3X1_17/B *L 0.0159247
*I NAND2X1_42/A *L 0.0125
*I NAND3X1_16/B *L 0.0159247
*I NAND2X1_43/B *L 0.0129035
*I NAND3X1_15/C *L 0.0164926
*I NAND2X1_35/B *L 0.0129035
*CAP
1 _227__n1 0.00039474
2 _227__n2 0.00040932
3 _227__n3 0.00010512
4 _227__n4 0.0016881
5 _227__n5 0.00152916
6 _227__n6 0.00203478
7 _227__n7 0.0001314
8 _227__n8 6.57e-05
9 _227__n9 0.00063336
10 _227__n10 0.0001314
11 _227__n11 0.00077232
12 _227__n12 0.0009462
13 _227__n13 0.00010512
14 _227__n14 0.0008798
*RES
1 INVX4_3/Y _227__n1 1.22667
2 _227__n1 _227__n2 1.81333
3 _227__n2 _227__n3 0.426667
4 _227__n3 OAI22X1_4/B 0
5 _227__n3 _227__n4 6.88
6 _227__n4 OAI21X1_54/A 0
7 _227__n2 _227__n5 7.67333
8 _227__n5 NAND3X1_17/B 0
9 _227__n1 _227__n6 9.12
10 _227__n6 _227__n7 0.533333
11 _227__n7 _227__n8 0.266667
12 _227__n8 NAND2X1_42/A 0
13 _227__n8 _227__n9 2.77333
14 _227__n9 _227__n10 0.533333
15 _227__n10 NAND3X1_16/B 0
16 _227__n9 _227__n11 3.41333
17 _227__n11 NAND2X1_43/B 0
18 _227__n6 _227__n12 4.98
19 _227__n12 _227__n13 0.426667
20 _227__n13 NAND3X1_15/C 0
21 _227__n12 _227__n14 3.73333
22 _227__n14 NAND2X1_35/B 0
*D_NET DC1.SGN_bF$buf5 0.00731688
*CONN
*P BUFX4_1/Y *D BUFX4
*I INVX8_1/A *L 0.0746269